
     RDKit          3D

  8  8  0  0  0  0  0  0  0  0999 V2000
   -5.1544    1.6783   -0.5912 N   0  0  0  0  0  0  0  0  0  0  0  0
   -4.1231    1.2757   -0.2213 C   0  0  0  0  0  0  0  0  0  1  0  0
   -2.9463    0.5563    0.1945 C   0  0  0  0  0  0  0  0  0  2  0  0
   -2.7360   -0.7732   -0.1200 C   0  0  0  0  0  0  0  0  0  3  0  0
   -1.4535   -1.2576   -0.3424 C   0  0  0  0  0  0  0  0  0  4  0  0
   -0.3630   -0.3971   -0.3275 C   0  0  0  0  0  0  0  0  0  5  0  0
   -0.5342    0.7899    0.3507 C   0  0  0  0  0  0  0  0  0 14  0  0
   -1.8151    1.2826    0.5443 C   0  0  0  0  0  0  0  0  0 15  0  0
  1  2  3  0
  2  3  1  0
  3  4  2  0
  4  5  1  0
  5  6  2  0
  6  7  1  0
  7  8  2  0
  8  3  1  0
M  END

