Mpro-x2193
     RDKit          3D

 16 17  0  0  0  0  0  0  0  0999 V2000
    9.1400   -3.6850   24.7670 N   0  0  0  0  0  0  0  0  0  0  0  0
   10.8070    2.6800   23.5860 C   0  0  0  0  0  0  0  0  0  0  0  0
   10.2200    1.7360   21.2410 O   0  0  0  0  0  0  0  0  0  0  0  0
    9.6650    0.1670   23.2400 C   0  0  0  0  0  0  0  0  0  0  0  0
    8.9090   -6.3070   25.8190 N   0  0  0  0  0  0  0  0  0  0  0  0
    8.3730    2.3720   22.7390 O   0  0  0  0  0  0  0  0  0  0  0  0
    9.8070   -0.9240   22.3990 C   0  0  0  0  0  0  0  0  0  0  0  0
    9.6570   -2.2010   22.9120 C   0  0  0  0  0  0  0  0  0  0  0  0
    9.3690   -2.3990   24.2630 C   0  0  0  0  0  0  0  0  0  0  0  0
    9.2670   -1.2870   25.0930 C   0  0  0  0  0  0  0  0  0  0  0  0
    9.4200   -0.0100   24.5910 C   0  0  0  0  0  0  0  0  0  0  0  0
    9.9340   -4.7880   24.2190 C   0  0  0  0  0  0  0  0  0  0  0  0
    9.1730   -6.0790   24.3870 C   0  0  0  0  0  0  0  0  0  0  0  0
    8.1220   -5.2030   26.4080 C   0  0  0  0  0  0  0  0  0  0  0  0
    8.8250   -3.8770   26.1900 C   0  0  0  0  0  0  0  0  0  0  0  0
    9.6810    1.8030   22.5680 S   0  0  0  0  0  0  0  0  0  0  0  0
  1 12  1  0
  1 15  1  0
  1  9  1  0
  9  8  2  0
  9 10  1  0
 12 13  1  0
 15 14  1  0
 16  2  1  0
 16  6  2  0
 16  3  2  0
 16  4  1  0
  4  7  2  0
  4 11  1  0
  7  8  1  0
 11 10  2  0
  5 13  1  0
  5 14  1  0
M  END
$$$$
