x2600
     RDKit          3D

 18 19  0  0  0  0  0  0  0  0999 V2000
   14.3070   -1.8040   20.5250 N   0  0  0  0  0  0  0  0  0  0  0  0
    8.4320    0.1680   21.5450 C   0  0  0  0  0  0  0  0  0  0  0  0
    9.0360    1.1170   21.0470 O   0  0  0  0  0  0  0  0  0  0  0  0
    8.9180   -0.5300   22.8010 C   0  0  0  0  0  0  0  0  0  0  0  0
    7.2820   -0.3310   21.0460 N   0  0  0  0  0  0  0  0  0  0  0  0
   10.4090   -0.3800   22.9940 C   0  0  0  0  0  0  0  0  0  0  0  0
    6.4490    0.5980   17.5820 N   0  0  0  0  0  0  0  0  0  0  0  0
   10.9190    0.3670   24.0510 C   0  0  0  0  0  0  0  0  0  0  0  0
   12.2850    0.5290   24.2120 C   0  0  0  0  0  0  0  0  0  0  0  0
   13.1640   -0.0520   23.3140 C   0  0  0  0  0  0  0  0  0  0  0  0
   12.6670   -0.7990   22.2480 C   0  0  0  0  0  0  0  0  0  0  0  0
   13.5680   -1.3630   21.2750 C   0  0  0  0  0  0  0  0  0  0  0  0
   11.2920   -0.9680   22.0940 C   0  0  0  0  0  0  0  0  0  0  0  0
    6.5540    0.1700   19.9490 C   0  0  0  0  0  0  0  0  0  0  0  0
    5.3860    0.8990   20.1370 C   0  0  0  0  0  0  0  0  0  0  0  0
    4.7630    1.4780   19.0450 C   0  0  0  0  0  0  0  0  0  0  0  0
    5.3300    1.3020   17.7940 C   0  0  0  0  0  0  0  0  0  0  0  0
    7.0370    0.0410   18.6470 C   0  0  0  0  0  0  0  0  0  0  0  0
  1 12  3  0
 12 11  1  0
  2  3  2  0
  2  5  1  0
  2  4  1  0
  4  6  1  0
  5 14  1  0
  6  8  2  0
  6 13  1  0
 14 15  1  0
 14 18  2  0
  8  9  1  0
 13 11  2  0
  7 17  2  0
  7 18  1  0
 17 16  1  0
  9 10  2  0
 10 11  1  0
 15 16  2  0
M  END
$$$$
